12|9520|Public
5000|$|In {{order to}} produce Link Quality Reports, a PPP peer has to {{implement}} <b>Link</b> <b>Quality</b> <b>Monitoring.</b> <b>Link</b> <b>Quality</b> <b>Monitoring</b> consists of maintaining a number of counters. These counters include: ...|$|E
30|$|In this subsection, {{we first}} review <b>link</b> <b>quality</b> <b>monitoring,</b> and second, {{we focus on}} route {{recovery}} techniques used in preemptive extensions of on-demand routing protocols.|$|E
30|$|The {{solution}} {{should use}} a comprehensive <b>link</b> <b>quality</b> <b>monitoring</b> mechanism {{which allows the}} protocol {{to take into account}} not only mobility but further reasons for performance degradation like congestion or interference.|$|E
40|$|Explore <b>links</b> {{to water}} <b>quality</b> <b>monitoring</b> {{training}} and equipment information. Building Your Own Equipment {{is a useful}} PDF document with instructions and illustrations on how to build and use water monitoring equipment such as stadia rods, crest gauges, kick nets, Hester-Dendy samplers and Secchi Discs. Equipment that you can't build at home and can check out from Utah State University is listed in the file, Check Out Monitoring Equipment. Educational levels: General public, Graduate or professional, High school, Informal education, Middle school, Undergraduate lower division, Undergraduate upper division...|$|R
40|$|We {{present the}} first-ever {{analysis}} of seasonally resolved global distributions of glyoxal (CHOCHO) and formaldehyde (HCHO). These are simultaneously observed from the Ozone Monitoring Instrument OMI) on EOS Aura. Both gases are {{volatile organic compounds}} (VOCs) that are intimately <b>linked</b> to air <b>quality</b> <b>monitoring.</b> A 12 -month time series of CHOCHO and HCHO total column monthly means during 2005 - 2006 is analyzed, focusing on regions of biomass burning (the Amazon, Africa, South-East Asia, etc.) and anthropogenic sources, in particular mega-cities including Los Angeles, Mexico City, the Pearl River Delta (PRD), and Beijing. OMI observations are compared with selected ground-based measurements from the MILAGRO and PRD campaigns, {{as well as with}} global simulations from the GEOS-Chem chemical transport model. Pages: 6461 - 646...|$|R
40|$|Understanding the {{relationship}} between water quality and ecosystem services valuation requires {{a broad range of}} approaches and methods from the domains of environmental science, ecology, physics and mathematics. The fundamental challenge is to decode the association between ‘ecosystem services geography’ with water quality distribution in time and in space. This demands the acquisition and integration of vast amounts of data from various domains in many formats and types. Here we present our system development concept to support the research in this field. We outline a technological approach that harnesses the power of data with scientific analytics and technology advancement in the evolution of a data ecosystem to evaluate water quality. The framework integrates the mobile applications and web technology into citizen science, environmental simulation and visualization. We describe a schematic design that <b>links</b> water <b>quality</b> <b>monitoring</b> and technical advances via collection by citizen scientists and professionals to support ecosystem services evaluation. These would be synthesized into big data analytics to be used for assessing ecosystem services related to water quality. Finally, the paper identifies technical barriers and opportunities, in respect of big data ecosystem, for valuating water quality in ecosystem services assessment...|$|R
30|$|The <b>link</b> <b>quality</b> <b>monitoring</b> {{mechanism}} {{should be}} based on information available at the network layer, so that the solution does not depend on the link layer implementation and is not limited to particular network interface card drivers or hardware.|$|E
40|$|<b>Link</b> <b>quality</b> <b>monitoring</b> in {{wireless}} {{sensor network}} has been studied in detail. There are many measurements for link quality in WSN presented by researchers.   Relative to the comprehensive study for <b>link</b> <b>quality</b> <b>monitoring,</b> there are very little research for link quality aggregation and representation for link situation of the whole network. This paper presents a three levels framework for global network link quality aggregation and representation (LQAR) and a bit-coding aggregation tree (BAT) algorithm for link quality aggregation and routing to sink node. The LQAR framework includes three levels: storage and digest level, aggregation level and representation level. Storage and digest level defines what data should be stored in a node and how to calculate the digest value representing the link situation around the node. Aggregation level uses BAT algorithm to aggregate the digest values of nodes and transmits them to sink node. Representation level solves how to visualize these data. BAT algorithm integrates bit-coding method with aggregation tree for energy saving. The simulation results show that BAT can reduce {{the total number of}} messages and decrease energy loss greatly. </span...|$|E
30|$|Finally, {{note that}} all the state-of-art <b>link</b> <b>quality</b> <b>monitoring</b> {{mechanisms}} considered, apart from [11] which uses GPS, {{are based on the}} reception of data packets. Therefore, if there are large intervals without data packets (for instance, due to Transmission Control Protocol (TCP) congestion control), link quality estimation could become poor or even unfeasible. In such a case, route recovery should be assumed by the default mechanisms of the routing protocol (i.e., route maintenance based on Hello losses in basic AODV).|$|E
40|$|While {{demands on}} video traffic over {{networks}} have been souring, the wireless link capacity cannot {{keep up with}} the traffic demand. The gap between the traffic demand and the link capacity, along with time-varying link conditions, results in poor service quality of IPTV streaming over networks such as long buffering time and intermittent disruptions. Leveraging the cloud computing technology, we propose a new IPTV framework, dubbed framework-Cloud, which has two main parts IPTV streaming and IPTV sharing. Streaming and Sharing construct a private agent to provide streaming services efficiently for each user. For a given user, lets her private agent adaptively adjust her streaming flow with a scalable video coding technique based on the feedback of <b>link</b> <b>quality.</b> Likewise, Streaming <b>monitors</b> the social network interactions among users, and their private agents try to prefetch video content in advance. We implement a prototype of the Cloud framework to demonstrate its performance. It is shown that the private agents in the clouds can effectively provide the adaptive streaming, and perform TV sharing(i. e., prefetching) based on the social network analysis...|$|R
40|$|Abstract: AODV {{is a kind}} of on-demand {{distance}} vector routing protocols, {{in the light of the}} characteristics of AODV (Ad hoc On Demand Distance Vector), AODV was revised in the paper, and on the basis of it, a kind of multipath AODV reliable data transmission routing algorithm based on LQI (LBM_AODV) was put forward. The algorithm mainly revised AODV protocol from the link information extraction, RREQ and RREP forwarding and processing and so on, and <b>link</b> <b>quality</b> and battery <b>monitoring</b> was increased when routing discovery was implemented by AODV routing protocol. In order to reduce routing failures that were caused due to nodes failure, the disjoint multipath of node was adopted, at the same time, the routing metric model RMBLQICV that was put forward by our research group was taken into account, so the optimal configuration of primary path and backup path were obtained. Finally, the LBM_AODV agreement was verified by experiment. The experimental results has shown that the LBM_AODV algorithm was used to data transmission, and the merits of the path can be effectively evaluated, the reliability of data transmission can be ensured, the energ...|$|R
40|$|Abstract—While {{demands on}} video traffic over mobile {{networks}} have been souring, the wireless link capacity cannot {{keep up with}} the traffic demand. The gap between the traffic demandandthe link capacity, along with time-varying link conditions, results in poor service quality of video streaming over mobile networks such as long buffering time and intermittent disruptions. Leveraging the cloud computing technology, we propose a new mobile video streaming framework, dubbed AMES-Cloud, which has two main parts: adaptive mobile video streaming (AMoV) and efficient social video sharing (ESoV). AMoV and ESoV construct a private agent to provide video streaming services efficiently for each mobile user. For a given user, AMoV lets her private agent adaptively adjust her streaming flow with a scalable video coding technique based on the feedback of <b>link</b> <b>quality.</b> Likewise, ESoV <b>monitors</b> the social network interactions among mobile users, and their private agents try to prefetch video content in advance. We implement a prototype of the AMES-Cloud framework to demonstrate its performance. It is shown that the private agents in the clouds can effectively provide the adaptive streaming, and perform video sharing (i. e., prefetching) based on the social network analysis. Index Terms—Adaptive video streaming, cloud computing, mobile networks, scalable video coding, social video sharing. I...|$|R
30|$|One {{approach}} that mitigates the connectivity maintenance limitations of AODV mentioned above is {{the maintenance of}} routes using preemptive mechanisms. Preemptive route recovery comprehends the following two components: <b>link</b> <b>quality</b> <b>monitoring</b> and route recovery [9]. Nodes monitor {{the quality of the}} links that participate in active routes and decide when the quality is no longer acceptable. In such cases, the node which detects the performance degradation warns the source of the route (which then can start the discovery of a new route) or starts a local repair process in order to find an alternative route.|$|E
40|$|Due to {{copyright}} restrictions, {{the access}} to {{the full text of}} this article is only available via subscription. In this letter, we propose a novel optical coding scheme for fiber <b>link</b> <b>quality</b> <b>monitoring</b> of a passive optical network (PON). The proposed scheme named incrementally pulse positioned coding (IPPC) is practically very attractive due to its simple design and fabrication process, small size, zero coding loss and low cost. We demonstrate the superior correlation properties of IPPC over existing codes, address the design considerations, and evaluate its performance for a PON monitoring system via the average signal-to-interference ratio (SIR). King Saud Universit...|$|E
40|$|Link {{quality is}} one of the most {{important}} factors that affect the performance of wireless networks. In a densely deployed wireless network, continuous <b>link</b> <b>quality</b> <b>monitoring</b> consumes significant amount of energy and bandwidth at each node. In this paper, we propose a sensitivity model and a spatial correlation model that can be used to derive a set of deputy links to monitor, instead of monitoring all of the links in the network. The proposed scheme can improve energy efficiency of the <b>link</b> <b>quality</b> <b>monitoring</b> process. A greedy algorithm is presented to derive the deputy links set based on three different optimization objective functions. Performance of the proposed method is studied extensively and it is shown that the proposed method can save almost 90 % energy in typical simulation scenarios than the method of monitoring all links. We also demonstrate that the energy consumption of the greedy deputy set-based method is upper-bounded. Copyright © 2010 John Wiley & Sons, Ltd. This paper proposed a deputy set-based sensitive links monitoring scheme (DSLMS) to track the quality of links in wireless networks. DSLMS scheme exploits the changing sensitivity of wireless links and changing correlation of adjacent links to cut down the count of active links and save energy dramatically. Monitoring the active links chosen by DSMLS can also make the nodes in network spend similar energy on the monitoring task no matter how many links (neighbors) they associate with. Copyright © 2010 John Wiley & Sons, Ltd. National Science and Technology Major Project of China 2009 ZX 03006 - 001 - 01; High-Tech Research and Development Program of China (a. k. a 863 Program) 2009 AA 11 Z 209; National Natural Science Foundation of China (NSFC) 60772070, 60673178 Link quality {{is one of}} the most important factors that affect the performance of wireless networks. In a densely deployed wireless network, continuous <b>link</b> <b>quality</b> <b>monitoring</b> consumes significant amount of energy and bandwidth at each node. In this paper, we propose a sensitivity model and a spatial correlation model that can be used to derive a set of deputy links to monitor, instead of monitoring all of the links in the network. The proposed scheme can improve energy efficiency of the <b>link</b> <b>quality</b> <b>monitoring</b> process. A greedy algorithm is presented to derive the deputy links set based on three different optimization objective functions. Performance of the proposed method is studied extensively and it is shown that the proposed method can save almost 90 % energy in typical simulation scenarios than the method of monitoring all links. We also demonstrate that the energy consumption of the greedy deputy set-based method is upper-bounded. Copyright © 2010 John Wiley & Sons, Ltd. This paper proposed a deputy set-based sensitive links monitoring scheme (DSLMS) to track the quality of links in wireless networks. DSLMS scheme exploits the changing sensitivity of wireless links and changing correlation of adjacent links to cut down the count of active links and save energy dramatically. Monitoring the active links chosen by DSMLS can also make the nodes in network spend similar energy on the monitoring task no matter how many links (neighbors) they associate with. Copyright © 2010 John Wiley & Sons, Ltd...|$|E
40|$|Abstract. With {{the rapid}} {{development}} of society especially the industry, water pollution {{has become more}} and more serious caused by all types of wastewater. In this paper, the design and implementation of a water <b>quality</b> <b>monitoring</b> system framework based on wireless sensor network for water <b>quality</b> <b>monitoring</b> has been achieved. And then, by merging and matching environmental data and spatial data, more intensive multi-source water quality parameters and information can be obtained to act as meaningful supplementation of fixed water <b>quality</b> <b>monitoring</b> stations. The research of this paper is conductive to the transition of water <b>quality</b> <b>monitoring</b> from static ways to dynamic ways and from data-based empirical model to sensor network-based quantitative model. The realization of water <b>quality</b> <b>monitoring</b> system framework based on wireless sensor network for water <b>quality</b> <b>monitoring</b> is helpful to make current water <b>quality</b> <b>monitoring</b> more timely, dynamic, integrated and intelligent, which represents the prosperous trend of water <b>quality</b> <b>monitoring...</b>|$|R
40|$|This paper {{studies the}} {{preferences}} and willingness-to-pay for individuals for volunteer water <b>quality</b> <b>monitoring</b> programs. The study involves supporting water <b>quality</b> <b>monitoring</b> at two ponds {{in the state}} of Rhode Island. The paper uses both a hypothetical and a real-payment contingent valuation survey to directly measure individual preferences and willingness-to-pay (WTP) for volunteer water <b>quality</b> <b>monitoring</b> at the two ponds. The overall results of the study suggest that hypothetical WTP is not statistically greater than real WTP, and that the average survey respondent is willing to support water <b>quality</b> <b>monitoring</b> on one of the two ponds. The study also finds that the specified purpose of water <b>quality</b> <b>monitoring</b> and certain socioeconomic characteristics of a respondent significantly affect the respondent's decision to support volunteer water <b>quality</b> <b>monitoring.</b> Environmental Economics and Policy,...|$|R
40|$|In this paper, we {{proposed}} a new low overhead collabora-tive technique of output <b>quality</b> <b>monitoring</b> for approximate computing on GPUs. In this technique, the CPU is respon-sible for performing <b>quality</b> <b>monitoring</b> while the GPU exe-cutes approximate kernels. For two image processing appli-cations, we showed that this technique outperforms previous <b>quality</b> <b>monitoring</b> techniques. 1...|$|R
30|$|A {{significant}} drawback of preemptive solutions {{based on}} <b>link</b> <b>quality</b> <b>monitoring</b> {{is that they}} need successful packet reception in order to monitor the signal strength of the packets sent by a particular neighbor. Thus, these solutions {{are not able to}} detect (and react to) congestion and interference, since such phenomena cause packet drops and corrupt receptions due to collisions (e.g., {{as in the case of}} a hidden terminal) and do not affect the received signal power of successfully received packets. Furthermore, these solutions must have access to nodes' physical layer parameters, which limit their implementation to specific network interface card (NIC) drivers. In fact, a wide majority of routing protocol implementations for MWNs use connectivity maintenance mechanisms which operate at the network layer, in order to avoid dependence on specific NIC drivers [22].|$|E
40|$|Abstract—Link quality {{monitoring}} in {{wireless sensor network}} has been studied in detail. There are many measurements for link quality in WSN presented by researchers. Relative to the comprehensive study for <b>link</b> <b>quality</b> <b>monitoring,</b> there are very little research for link quality aggregation and representation for link situation of the whole network. This paper presents a three levels framework for global network link quality aggregation and representation (LQAR) and a bit-coding aggregation tree (BAT) algorithm for link quality aggregation and routing to sink node. The LQAR framework includes three levels: storage and digest level, aggregation level and representation level. Storage and digest level defines what data should be stored in a node and how to calculate the digest value representing the link situation around the node. Aggregation level uses BAT algorithm to aggregate the digest values of nodes and transmits them to sink node. Representation level solves how to visualize these data. BAT algorithm integrates bit-coding method with aggregation tree for energy saving. The simulation results show that BAT can reduce {{the total number of}} messages and decrease energy loss greatly. Index Terms—wireless sensor network, link quality, aggregation, representation, contour map I...|$|E
40|$|Over {{the last}} few years, {{standardisation}} efforts are consolidating {{the role of the}} Routing Protocol for Low-Power and Lossy Networks (RPL) as the standard routing protocol for IPv 6 -based Wireless Sensor Networks (WSNs). Although many core functionalities are well defined, others are left implementation dependent. Among them, the definition of an efficient link-quality estimation (LQE) strategy is of paramount importance, as it influences significantly both the quality of the selected network routes and nodesâ 8 ̆ 09 ̆ 9 energy consumption. In this paper, we present RL-Probe, a novel strategy for <b>link</b> <b>quality</b> <b>monitoring</b> in RPL, which accurately measures link quality with minimal overhead and energy waste. To achieve this goal, RL-Probe leverages both synchronous and asynchronous monitoring schemes to maintain up-to-date information on link quality and to promptly react to sudden topology changes, e. g. due to mobility. Our solution relies on a reinforcement learning model to drive the monitoring procedures in order to minimise the overhead caused by active probing operations. The performance of the proposed solution is assessed by means of simulations and real experiments. Results demonstrated that RL-Probe helps in effectively improving packet loss rates, allowing nodes to promptly react to link quality variations as well as to link failures due to node mobility...|$|E
40|$|Abstract—An {{accurate}} and efficient <b>link</b> <b>quality</b> estimation method {{is crucial for}} the performance of the upper layer routing protocol, flow distribution and topology control algorithms in WSNs (Wireless Sensor Networks). Based on the analysis of the cause for packet loss and bit error, an improved LQI (<b>Link</b> <b>Quality</b> Indicator) -based <b>link</b> <b>quality</b> estimation mechanism called imLQI is introduced, which takes into account the LQI values of the unsuccessfully received packets when calculates the average LQI values. The accuracy and efficiency of imLQI has been proved by diverse experiments running on real testbed. On the basic of the mechanism, this paper also develops an LQI-based <b>link</b> <b>quality</b> estimation model, and multiple measurements have been executed to validate the correctness of this model. Keywords-wireless sensor networks; <b>link</b> <b>quality</b> estimation; <b>link</b> <b>quality</b> indicator; <b>link</b> <b>quality</b> measurements I...|$|R
30|$|In {{high-speed}} railway (HSR) wireless networks, the <b>link</b> <b>quality</b> {{is greatly}} time-dependent and location-varying. Due {{to the high}} randomness, {{it is challenging to}} predict the <b>link</b> <b>quality</b> in HSR wireless networks. In this paper, we firstly conducted a certain amount of field measurement campaigns of HSR wireless network <b>link</b> <b>quality.</b> A great number of practical datasets are collected regarding packet loss rate (PLR) and round-trip time (RTT). Then, we analyzed its changing pattern in different time scales, and further model the <b>link</b> <b>quality</b> of HSR wireless network using hidden Markov chain. Based on this, an improved algorithm was developed to simulate the variation of HSR wireless network <b>link</b> <b>quality.</b> Simulation results prove that the proposed model is capable of accurately reproducing the behavior of HSR wireless network <b>link</b> <b>quality</b> with regard to PLR and RTT. This work will offer new inspiration to the prediction of <b>link</b> <b>quality</b> for HSR wireless networks.|$|R
40|$|Abstract — The environments of WSN {{frequently}} {{disturb the}} <b>link</b> <b>quality.</b> <b>Link</b> <b>quality</b> not only affects {{the reliability of}} data transmission in the network, but also determines the performance of related Upper-layer network protocol. Therefore, <b>link</b> <b>quality</b> evaluation becomes a considering question. The <b>link</b> <b>quality</b> evaluation methods include data package delivery rate and LQI(Link Quality Index). Practical tests show that the delivery rate and LQI value has high dithering and low performance, which can not provide the foundation for Upper-layer protocol. This paper proposed a stable and sensitivity adjustable evaluation algorithm by applying EWMA mathematical model to <b>link</b> <b>quality</b> evaluation. The experimental results prove {{the validity of the}} algorithm which can better evaluate actual <b>link</b> <b>quality</b> according to the historical and current data...|$|R
40|$|With {{the growth}} of economy in recent years, the water <b>quality</b> <b>monitoring</b> becomes a {{critical}} issue about water pollution. Water <b>Quality</b> <b>Monitoring</b> has a big influence on the aquaculture management, waste water treatment, drinking water and some other applications. There is a trend to build a wireless sensor network system for water <b>quality</b> <b>monitoring.</b> This system detects pH, conductivity, dissolved oxygen, turbidity, temperature, ORP (Oxidation-Reduction Potential), BOD (Biochemical Oxygen Demand), Flow and etc. Some important electrochemical parameters of water quality should also be detected, like Ca 2 +, Mg 2 +, Cl 2, Cl-, NO 3 -, NH 3 +, CO 2 /CO 32 -, F-, BF 4 -, K+, Na+. The water <b>quality</b> <b>monitoring</b> system should guarantee the accuracy, security and reliability. In this paper, I research an integrated system model for water <b>quality</b> <b>monitoring</b> system {{which is based on}} chlorine analyzer, turbidity meter, pH meter, conductivity meter, dissolved oxygen meter and so on. I analyze the water <b>quality</b> <b>monitoring</b> program according to different physical environment...|$|R
50|$|According to the ME-DEP Lake Water <b>Quality</b> <b>Monitoring</b> Report for Schoodic Lake {{provided}} by the PEARL spatial database, water <b>quality</b> <b>monitoring</b> data for Schoodic Lake has been collected since 1977.|$|R
40|$|This book {{provides}} a comprehensive survey on related work for radio <b>link</b> <b>quality</b> estimation, which covers {{the characteristics of}} low-power links, the fundamental concepts of <b>link</b> <b>quality</b> estimation in wireless sensor networks, a taxonomy of existing <b>link</b> <b>quality</b> estimators and their performance analysis. It then shows how <b>link</b> <b>quality</b> estimation {{can be used for}} designing protocols and mechanisms such as routing and hand-off. The final part is dedicated to radio interference estimation, generation and mitigation...|$|R
40|$|Wireless sensor {{networks}} {{collect data}} from several nodes dispersed at remote sites. Sensor nodes {{can be installed}} in harsh environments such as deserts, cities, and indoors, where the <b>link</b> <b>quality</b> changes considerably over time. Particularly, changes in transmission power {{may be caused by}} temperature, humidity, and other factors. In order to compensate for <b>link</b> <b>quality</b> changes, existing schemes detect the <b>link</b> <b>quality</b> changes between nodes and control transmission power through a series of feedback processes, but these approaches can cause heavy overhead with the additional control packets needed. In this paper, the change of the <b>link</b> <b>quality</b> according to temperature is examined through empirical experimentation. A new power control scheme combining both temperature-aware <b>link</b> <b>quality</b> compensation and a closed-loop feedback process to adapt to <b>link</b> <b>quality</b> changes is proposed. We prove that the proposed scheme effectively adapts the transmission power to the changing <b>link</b> <b>quality</b> with less control overhead and energy consumption...|$|R
40|$|Abstract—The environments of WSN {{frequently}} {{disturb the}} <b>link</b> <b>quality.</b> <b>Link</b> <b>quality</b> not only affects {{the reliability of}} data transmission in the network, but also determines the performance of related Upper-layer network protocol. Therefore, <b>link</b> <b>quality</b> evaluation becomes a considering question. The <b>link</b> <b>quality</b> evaluation methods include data package delivery rate and LQI(Link Quality Index). Practical tests show that the delivery rate and LQI value has high dithering and low performance, which can not provide the foundation for Upper-layer protocol. This paper proposed a stable and sensitivity adjustable evaluation algorithm by applying EWMA mathematical model to <b>link</b> <b>quality</b> evaluation. The experimental results prove {{the validity of the}} algorithm which can better evaluate actual <b>link</b> <b>quality</b> according to the historical and current data. Index-terms—Wireless Sensor Network; EWMA; package delivery ratio; evaluation model I...|$|R
25|$|Mason, William Thomas. Potomac River Basin Baseline Water <b>Quality</b> <b>Monitoring</b> Network. Water <b>Quality</b> <b>Monitoring</b> Task Group. Interstate Commission on the Potomac River Basin. Bethesda, Md.: Interstate Commission on the Potomac River Basin, 1974.|$|R
40|$|The {{usage of}} <b>link</b> <b>quality</b> based routing metrics {{significantly}} improves {{the quality of}} the chosen paths and by that the performance of the network. But, attackers may try to exploit <b>link</b> <b>qualities</b> for their purposes. Especially in tactical multi-hop networks, routing may fall prey to an attacker. Such routing attacks are a serious threat to communication. TOGBAD is a centralised approach, using topology graphs to detect routing attacks. In this paper, we enhance TOGBAD with the capability to detect fake <b>link</b> <b>qualities.</b> We use a Challenge/Response method to estimate the <b>link</b> <b>qualities</b> in the network. Based on this, we perform plausibility checks for the <b>link</b> <b>qualities</b> propagated by the nodes in the network. Furthermore, we study the impact of attackers propagating fake <b>link</b> <b>qualities</b> and present simulation results showing TOGBAD 2 ̆ 7 s detection rate...|$|R
50|$|Responsibility for {{ambient air}} <b>quality</b> <b>monitoring</b> in Bishkek {{lies with the}} Kyrgyz State Agency of Hydrometeorology. There are seven air <b>quality</b> <b>monitoring</b> {{stations}} in Bishkek, measuring levels of sulfur dioxide, nitrogen oxides, formaldehyde, and ammonia.|$|R
40|$|Link quality-based routing {{protocols}} are often utilized in wireless sensor networks. <b>Link</b> <b>quality</b> estimation algorithms {{are used to}} retrieve information about the <b>link</b> <b>quality,</b> which is evaluated to choose the best available path. Concurrently, recent work has revealed severe inaccuracies in <b>link</b> <b>quality</b> estimations provided by modern short-range wireless devices. The sensitivity of {{routing protocols}} to such errors in the estimation of the <b>link</b> <b>quality</b> has not been considered so far. In this paper, we define two main classes of link qualitybased routing metrics and examine these classes. We present a method to estimate the sensitivity of routing metrics to <b>link</b> <b>quality</b> estimation errors and confirm this method by simulations. Some routing metrics are surprisingly strong influenced by estimation errors. This finding questions the applicability of these protocols in large-scale networks and necessitates {{that the impact of}} <b>link</b> <b>quality</b> estimation errors is explicitly regarded in future developments of link-quality-based routing metrics to create more robust metrics. Our proposed method to estimate the sensitivity of routing metrics on <b>link</b> <b>quality</b> estimation errors shows to be helpful here...|$|R
50|$|Service <b>quality</b> <b>monitoring.</b>|$|R
5000|$|... #Caption: [...] Water <b>qualities</b> <b>monitor</b> with {{solar cell}} by Brentford Dock. The Port of London Authority has about 20 water <b>quality</b> <b>monitoring</b> {{stations}} {{along the river}} from Richmond to Purfleet. quoting from a 2003 account in The Guardian ...|$|R
40|$|To <b>monitor</b> water <b>quality</b> {{continuously}} {{over the}} entire sewer network is important for efficient management of the system. However, it is practically impossible to implement continuous water <b>quality</b> <b>monitoring</b> of all junctions of a sewer system due to budget constraints. Therefore, water <b>quality</b> <b>monitoring</b> locations must be selected as those points which are the most representative of the dataset throughout a system. However, the optimal selection of water <b>quality</b> <b>monitoring</b> locations in urban sewer networks has rarely been studied. This study proposes a method for the optimal selection of water <b>quality</b> <b>monitoring</b> points in sewer systems based on entropy theory. The proposed model searches for a quantitative assessment of data collected from monitoring points. The points that maximize the total information among the collected data at multiple locations are selected using genetic algorithm (GA) for water <b>quality</b> <b>monitoring.</b> The proposed model is demonstrated for a small urban sewer system...|$|R
